Version 4
SHEET 1 908 896
WIRE 368 -160 368 -192
WIRE 512 -160 512 -192
WIRE 656 -160 656 -192
WIRE 64 16 -48 16
WIRE 144 16 64 16
WIRE 544 16 224 16
WIRE 64 144 64 16
WIRE 128 144 64 144
WIRE 288 160 192 160
WIRE 304 160 288 160
WIRE 448 160 384 160
WIRE 544 160 544 16
WIRE 544 160 512 160
WIRE 592 160 544 160
WIRE 672 160 656 160
WIRE 128 176 64 176
WIRE -464 192 -496 192
WIRE -240 192 -384 192
WIRE 672 240 672 160
WIRE -240 336 -240 192
WIRE -128 336 -240 336
WIRE 64 336 64 176
WIRE 64 336 -48 336
WIRE 144 336 64 336
WIRE 288 336 288 160
WIRE 288 336 224 336
WIRE -640 352 -688 352
WIRE -544 352 -560 352
WIRE 672 352 672 320
WIRE -544 384 -544 352
WIRE -512 384 -544 384
WIRE -464 384 -512 384
WIRE -240 384 -240 336
WIRE -240 384 -304 384
WIRE -496 448 -496 192
WIRE -496 448 -544 448
WIRE -464 448 -496 448
WIRE -240 448 -304 448
WIRE -640 480 -720 480
WIRE -544 480 -544 448
WIRE -544 480 -560 480
WIRE 64 528 -48 528
WIRE 144 528 64 528
WIRE 544 528 224 528
WIRE -720 544 -720 480
WIRE -512 640 -512 384
WIRE -464 640 -512 640
WIRE -240 640 -240 448
WIRE -240 640 -384 640
WIRE -720 656 -720 624
WIRE 64 656 64 528
WIRE 128 656 64 656
WIRE 288 672 192 672
WIRE 304 672 288 672
WIRE 448 672 384 672
WIRE 544 672 544 528
WIRE 544 672 512 672
WIRE 592 672 544 672
WIRE 672 672 656 672
WIRE 128 688 64 688
WIRE 672 752 672 672
WIRE -240 848 -240 640
WIRE -128 848 -240 848
WIRE 64 848 64 688
WIRE 64 848 -48 848
WIRE 144 848 64 848
WIRE 288 848 288 672
WIRE 288 848 224 848
WIRE 672 864 672 832
FLAG 368 -80 0
FLAG 368 -192 +V
FLAG 160 128 -V
FLAG 160 192 +V
FLAG -128 16 0
FLAG 512 -80 0
FLAG 512 -192 -V
FLAG 672 352 0
FLAG 160 640 -V
FLAG 160 704 +V
FLAG -128 528 0
FLAG 672 864 0
FLAG -432 512 V+
FLAG -432 320 V-
FLAG -720 656 0
FLAG -688 352 0
FLAG 656 -80 0
FLAG 656 -192 V1
FLAG -400 320 0
SYMBOL OpAmps\\AD8066 160 224 M180
SYMATTR InstName OPp
SYMBOL voltage 368 -176 R0
SYMATTR InstName V1
SYMATTR Value 12
SYMBOL voltage 512 -64 R180
WINDOW 0 24 96 Left 2
WINDOW 3 24 16 Left 2
SYMATTR InstName V2
SYMATTR Value 12
SYMBOL res -32 0 R90
WINDOW 0 0 56 VBottom 2
WINDOW 3 32 56 VTop 2
SYMATTR InstName Rp1
SYMATTR Value 47k
SYMBOL res 240 0 R90
WINDOW 0 0 56 VBottom 2
WINDOW 3 32 56 VTop 2
SYMATTR InstName Rp2
SYMATTR Value 47k
SYMBOL res 240 320 R90
WINDOW 0 0 56 VBottom 2
WINDOW 3 32 56 VTop 2
SYMATTR InstName Rp3
SYMATTR Value 47k
SYMBOL res -32 320 R90
WINDOW 0 0 56 VBottom 2
WINDOW 3 32 56 VTop 2
SYMATTR InstName Rp4
SYMATTR Value 47k
SYMBOL res 400 144 R90
WINDOW 0 0 56 VBottom 2
WINDOW 3 32 56 VTop 2
SYMATTR InstName Rp5
SYMATTR Value 1k
SYMBOL cap 512 144 R90
WINDOW 0 0 32 VBottom 2
WINDOW 3 32 32 VTop 2
SYMATTR InstName Cp1
SYMATTR Value 1µ
SYMBOL cap 656 144 R90
WINDOW 0 0 32 VBottom 2
WINDOW 3 32 32 VTop 2
SYMATTR InstName Cp2
SYMATTR Value 1µ
SYMBOL res 656 224 R0
SYMATTR InstName LOADp
SYMATTR Value 1k
SYMBOL OpAmps\\AD8066 160 736 M180
SYMATTR InstName OPn
SYMBOL res -32 512 R90
WINDOW 0 0 56 VBottom 2
WINDOW 3 32 56 VTop 2
SYMATTR InstName Rn1
SYMATTR Value 47k
SYMBOL res 240 512 R90
WINDOW 0 0 56 VBottom 2
WINDOW 3 32 56 VTop 2
SYMATTR InstName Rn2
SYMATTR Value 47k
SYMBOL res 240 832 R90
WINDOW 0 0 56 VBottom 2
WINDOW 3 32 56 VTop 2
SYMATTR InstName Rn3
SYMATTR Value 47k
SYMBOL res -32 832 R90
WINDOW 0 0 56 VBottom 2
WINDOW 3 32 56 VTop 2
SYMATTR InstName Rn4
SYMATTR Value 47k
SYMBOL voltage -720 528 R0
WINDOW 0 24 96 Left 2
WINDOW 3 24 16 Left 2
WINDOW 123 0 0 Left 0
WINDOW 39 0 0 Left 0
SYMATTR InstName V4
SYMATTR Value SINE(0 .5 125k)
SYMBOL res 400 656 R90
WINDOW 0 0 56 VBottom 2
WINDOW 3 32 56 VTop 2
SYMATTR InstName Rn5
SYMATTR Value 1k
SYMBOL cap 512 656 R90
WINDOW 0 0 32 VBottom 2
WINDOW 3 32 32 VTop 2
SYMATTR InstName Cn1
SYMATTR Value 1µ
SYMBOL cap 656 656 R90
WINDOW 0 0 32 VBottom 2
WINDOW 3 32 32 VTop 2
SYMATTR InstName Cn2
SYMATTR Value 1µ
SYMBOL res 656 736 R0
SYMATTR InstName LOADn
SYMATTR Value 1k
SYMBOL OpAmps\\AD8137 -432 416 M180
SYMATTR InstName U1
SYMBOL res -368 176 R90
WINDOW 0 0 56 VBottom 2
WINDOW 3 32 56 VTop 2
SYMATTR InstName Rin3
SYMATTR Value 100k
SYMBOL res -544 336 R90
WINDOW 0 0 56 VBottom 2
WINDOW 3 32 56 VTop 2
SYMATTR InstName Rin1
SYMATTR Value 100k
SYMBOL res -368 624 R90
WINDOW 0 0 56 VBottom 2
WINDOW 3 32 56 VTop 2
SYMATTR InstName Rin4
SYMATTR Value 100k
SYMBOL res -544 464 R90
WINDOW 0 0 56 VBottom 2
WINDOW 3 32 56 VTop 2
SYMATTR InstName Rin2
SYMATTR Value 100k
SYMBOL voltage 656 -176 R0
SYMATTR InstName V3
SYMATTR Value 1v
TEXT 720 216 Left 2 ;200 to 2k Ohms
TEXT -104 -128 Left 2 !.tran 0 .00004 0 .000004
TEXT 720 728 Left 2 ;200 to 2k Ohms
TEXT -808 512 Left 2 ;1Vpp
