Version 4
SHEET 1 880 680
WIRE 240 -368 240 -400
WIRE 384 -368 384 -400
WIRE -64 -192 -176 -192
WIRE 16 -192 -64 -192
WIRE 416 -192 96 -192
WIRE -64 -64 -64 -192
WIRE 0 -64 -64 -64
WIRE 160 -48 64 -48
WIRE 176 -48 160 -48
WIRE 320 -48 256 -48
WIRE 416 -48 416 -192
WIRE 416 -48 384 -48
WIRE 464 -48 416 -48
WIRE 544 -48 528 -48
WIRE 0 -32 -64 -32
WIRE -512 16 -512 -32
WIRE 544 32 544 -48
WIRE -256 128 -368 128
WIRE -64 128 -64 -32
WIRE -64 128 -176 128
WIRE 16 128 -64 128
WIRE 160 128 160 -48
WIRE 160 128 96 128
WIRE 544 144 544 112
FLAG 240 -288 0
FLAG 240 -400 +V
FLAG 32 -80 -V
FLAG 32 -16 +V
FLAG -512 -112 0
FLAG -256 -192 0
FLAG 384 -288 0
FLAG 384 -400 -V
FLAG -368 128 Vin
FLAG 544 144 0
SYMBOL OpAmps\\AD8066 32 16 M180
SYMATTR InstName U1
SYMBOL voltage 240 -384 R0
SYMATTR InstName V1
SYMATTR Value 12
SYMBOL voltage 384 -272 R180
WINDOW 0 24 96 Left 2
WINDOW 3 24 16 Left 2
SYMATTR InstName V2
SYMATTR Value 12
SYMBOL res -160 -208 R90
WINDOW 0 0 56 VBottom 2
WINDOW 3 32 56 VTop 2
SYMATTR InstName R1
SYMATTR Value 47k
SYMBOL res 112 -208 R90
WINDOW 0 0 56 VBottom 2
WINDOW 3 32 56 VTop 2
SYMATTR InstName R2
SYMATTR Value 47k
SYMBOL res 112 112 R90
WINDOW 0 0 56 VBottom 2
WINDOW 3 32 56 VTop 2
SYMATTR InstName R3
SYMATTR Value 47k
SYMBOL res -160 112 R90
WINDOW 0 0 56 VBottom 2
WINDOW 3 32 56 VTop 2
SYMATTR InstName R4
SYMATTR Value 47k
SYMBOL voltage -512 -16 R180
WINDOW 0 24 96 Left 2
WINDOW 3 24 16 Left 2
WINDOW 123 0 0 Left 0
WINDOW 39 0 0 Left 0
SYMATTR InstName V3
SYMATTR Value SINE(0 .5 125k)
SYMBOL res 272 -64 R90
WINDOW 0 0 56 VBottom 2
WINDOW 3 32 56 VTop 2
SYMATTR InstName R5
SYMATTR Value 1k
SYMBOL cap 384 -64 R90
WINDOW 0 0 32 VBottom 2
WINDOW 3 32 32 VTop 2
SYMATTR InstName C1
SYMATTR Value 1µ
SYMBOL cap 528 -64 R90
WINDOW 0 0 32 VBottom 2
WINDOW 3 32 32 VTop 2
SYMATTR InstName C2
SYMATTR Value 1µ
SYMBOL res 528 16 R0
SYMATTR InstName BODY
SYMATTR Value 2000
TEXT 592 8 Left 2 ;200 to 2k Ohms
TEXT -232 -336 Left 2 !.tran 0 .00004 0 .000004
TEXT -696 -88 Left 2 ;1Vpp
